/*--------------------------------*- C++ -*----------------------------------*\
| =========                 |                                                 |
| \\      /  F ield         | OpenFOAM: The Open Source CFD Toolbox           |
|  \\    /   O peration     | Version:  4.x                                   |
|   \\  /    A nd           | Web:      www.OpenFOAM.org                      |
|    \\/     M anipulation  |                                                 |
\*---------------------------------------------------------------------------*/
FoamFile
{
    version     2.0;
    format      ascii;
    class       dictionary;
    object      blockMeshDict;
}
// * * * * * * * * * * * * * * * * * * * * * * * * * * * * * * * * * * * * * //






meshGenApp blockMesh;
convertToMeters 0.001;


// Настройки
// Коэфициент перед периодом
// Толщина зазора
// Внешний диаметр
//----------------------------------------------------------
// Максимальный радиус
// Минимальный радиус
// Длина цилиндра
// Количество ячееу по периметру
// Количество ячееу вдоль радиуса
// Количество ячееу вдоль оси
// Конец настроек







/*
blockMesh параметры:
Минимальный радиус - 125 мм
Максимальный радиус - 150 мм
Длина цилиндра - 300 мм
Количество ячееу по периметру - 300
Количество ячееу вдоль радиуса - 10
Количество ячееу вдоль оси - 100
*/
vertices
(
    ( 125  0.0 0.0) // 0
    ( 0.0  125 0.0) // 1
    (-125  0.0 0.0) // 2
    ( 0.0 -125 0.0) // 3

    ( 150  0.0 0.0) // 4
    ( 0.0  150 0.0) // 5
    (-150  0.0 0.0) // 6
    ( 0.0 -150 0.0) // 7

    ( 125  0.0 300) // 8
    ( 0.0  125 300) // 9
    (-125  0.0 300) // 10
    ( 0.0 -125 300) // 11

    ( 150  0.0 300) // 12
    ( 0.0  150 300) // 13
    (-150  0.0 300) // 14
    ( 0.0 -150 300) // 15
);
blocks
(
    // I четверть - верх-право
    hex (0 4 5 1 8 12 13 9) blockUPRIGHT (10 75 100) simpleGrading (1 1 1)
    // II четверть - верх-лево
    hex (1 5 6 2 9 13 14 10) blockUPLEFT (10 75 100) simpleGrading (1 1 1)
    // III четверть - низ-лево
    hex (2 6 7 3 10 14 15 11) blockDOWNLEFT (10 75 100) simpleGrading (1 1 1)
    // IV четверть - низ-право
    hex (3 7 4 0 11 15 12 8) blockDOWNRIGHT (10 75 100) simpleGrading (1 1 1)
);

//create the quarter circles
edges
(
    // Дуги для Z = 0
    // I четверть - верх-право
    arc 0 1 ( 88.3883476483205  88.3883476483164 0.0)
    arc 4 5 ( 106.066017177985  106.06601717798 0.0)
    // II четверть - верх-лево
    arc 1 2 (-88.3883476483205  88.3883476483164 0.0)
    arc 5 6 (-106.066017177985  106.06601717798 0.0)
    // III четверть - низ-лево
    arc 2 3 (-88.3883476483205 -88.3883476483164 0.0)
    arc 6 7 (-106.066017177985 -106.06601717798 0.0)
    // IV четверть - низ-право
    arc 3 0 ( 88.3883476483205 -88.3883476483164 0.0)
    arc 7 4 ( 106.066017177985 -106.06601717798 0.0)

    // Дуги для Z = Length
    // I четверть - верх-право
    arc 8 9  ( 88.3883476483205  88.3883476483164 300)
    arc 12 13( 106.066017177985  106.06601717798 300)
    // II четверть - верх-лево
    arc 9 10 (-88.3883476483205  88.3883476483164 300)
    arc 13 14(-106.066017177985  106.06601717798 300)
    // III четверть - низ-лево
    arc 10 11(-88.3883476483205 -88.3883476483164 300)
    arc 14 15(-106.066017177985 -106.06601717798 300)
    // IV четверть - низ-право
    arc 11 8 ( 88.3883476483205 -88.3883476483164 300)
    arc 15 12( 106.066017177985 -106.06601717798 300)
);

boundary
(
    inlet // Когда Z = Length
    {
        type patch;
        faces
        (
            (8 12 13 9)
            (9 13 14 10)
            (10 14 15 11)
            (11 15 12 8)
        );
    }
    outlet // Когда Z = 0
    {
        type patch;
        faces
        (
            (0 4 5 1)
            (1 5 6 2)
            (2 6 7 3)
            (3 7 4 0)
        );
    }
    walls
    {
        type wall;
        faces
        (
            // I четверть - верх-право
            (0 1 9 8)
            (4 5 13 12)
            // II четверть - верх-лево
            (1 2 10 9)
            (5 6 14 13)
            // III четверть - низ-лево
            (2 3 11 10)
            (6 7 15 14)
            // IV четверть - низ-право
            (3 0 8 11)
            (7 4 12 15)
        );
    }
);
mergePatchPairs
(
);