/*--------------------------------*- C++ -*----------------------------------*\
| =========                 |                                                 |
| \\      /  F ield         | OpenFOAM: The Open Source CFD Toolbox           |
|  \\    /   O peration     | Version:  2.3.0                                 |
|   \\  /    A nd           | Web:      www.OpenFOAM.org                      |
|    \\/     M anipulation  |                                                 |
\*---------------------------------------------------------------------------*/
FoamFile
{
    version     2.0;
    format      ascii;
    class       dictionary;
    location    "system";
    object      controlDict;
}
// * * * * * * * * * * * * * * * * * * * * * * * * * * * * * * * * * * * * * //

application     RDE;

startFrom       latestTime;

startTime       0;

stopAt          endTime;

endTime         0.005;

deltaT          1e-6;

writeControl    adjustableRunTime;

writeInterval   0.0001;

purgeWrite      0;

writeFormat     ascii;

writePrecision  6;

writeCompression off;

timeFormat      general;

timePrecision   6;

runTimeModifiable true;

adjustTimeStep  yes;

maxCo 0.5;

maxDeltaT 1;

actions
(
    {
        // Name of set to operate on
        name    extractedFaces;  // to create the faceZone required by the effectiveness module in fvOptions
        type    faceSet;
        // One of clear/new/invert/add/delete|subset/list
        action  new;
        source  boxToFace;
        sourceInfo
        {  
            // thin box to extract the faceZone where you want to investigate the massflow
            box (-0.153 -0.153 0.0) (0.153 0.153 0.0);  
        }
    }
   
   
    // creation of the faceZone (from the above faceSet)
    {
        name    OutFlowSurface;
        type    faceZoneSet;
        action  new;
        source  searchableSurfaceToFaceZone;
        sourceInfo
        {
            surface searchableSphere;
            centre  (0.05 0.05 0.005);
            radius  0.025;
        }
    }
);
functions
{
    #include "point(t)"
    #include "average(t)"
}
libs ("RDElibBC.so");
// ************************************************************************* //
//BreakDown Accustic;
BreakDown Godunov;
//BreakDown Kolgan;

CameraLength 0.300;
CameraDiameter 0.300;
UseChemistry true;  // Использование химической кинетики в расчетах

