/*--------------------------------*- C++ -*----------------------------------*\
  =========                 |
  \\      /  F ield         | OpenFOAM: The Open Source CFD Toolbox
   \\    /   O peration     | Website:  https://openfoam.org
    \\  /    A nd           | Version:  6
     \\/     M anipulation  |
\*---------------------------------------------------------------------------*/
FoamFile
{
    version     2.0;
    format      ascii;
    class       polyBoundaryMesh;
    location    "constant/polyMesh";
    object      boundary;
}
// * * * * * * * * * * * * * * * * * * * * * * * * * * * * * * * * * * * * * //

5
(
    inlet
    {
        type            patch;
        nFaces          300;
        startFace       59600;
    }
    outlet
    {
        type            patch;
        nFaces          300;
        startFace       59900;
    }
    walls
    {
        type            empty;
        inGroups        1(empty);
        nFaces          60000;
        startFace       60200;
    }
    timeWallLEFT
    {
        type            cyclic;
        inGroups        1(cyclic);
        nFaces          100;
        startFace       120200;
        matchTolerance  0.0001;
        transform       unknown;
        neighbourPatch  timeWallRIGHT;
    }
    timeWallRIGHT
    {
        type            cyclic;
        inGroups        1(cyclic);
        nFaces          100;
        startFace       120300;
        matchTolerance  0.0001;
        transform       unknown;
        neighbourPatch  timeWallLEFT;
    }
)

// ************************************************************************* //
